LAMMPS (27 Feb 2020)
dimension    3
boundary    p p p
units metal

atom_style    atomic

neighbor    2.0 bin
neigh_modify delay 5
#neigh_modify    every 1 delay 0 check yes

# create geometry

lattice        diamond 4
Lattice spacing in x,y,z = 4 4 4
region        box block 0 2 0 2 0 6
create_box    1 box
Created orthogonal box = (0 0 0) to (8 8 24)
create_atoms    1 box
Created 192 atoms

mass        1 28.0855

# Stillinger-Weber potential for Si
pair_style sw
pair_coeff * * Si.sw Si
Reading potential file Si.sw with DATE: 2007-06-11

timestep 0.01

#Print
thermo          1
thermo_style custom step temp pe etotal press vol density

# minimize
dump 101 all xyz 10 si_min.xyz
fix 1 all box/relax iso 0.0
minimize 1.0e-6 1.0e-8 1000000 10000000
  update every 1 steps, delay 0 steps, check yes
Step Temp PotEng TotEng Press Volume Density
0            0    3935.8479    3935.8479     21641420         1536    5.8296332
Averages over the last 1786 of 3572 rows, steps 1786 to 3571:
Temp PotEng TotEng Press Volume Density
0 -756.046 -756.046 336615 3145.89 2.88907
Loop time of 22.015 on 1 procs for 3571 steps with 192 atoms

Minimization stats:
  Stopping criterion = energy tolerance
  Energy initial, next-to-last, final =
  Force two-norm initial, final = 62242.6 7.58415
  Force max component initial, final = 62242.6 7.58415
  Final line search alpha, max atom move = 1.1395e-05 8.64213e-05
  Iterations, force evaluations = 3571 3571

unfix 1
undump 101

reset_timestep 0

thermo 10
#Relaxation
fix 1 all npt temp 300 300 0.1 iso 0 0 1
run 50
Step Temp PotEng TotEng Press Volume Density
0            0   -832.62478   -832.62478    1431.7956    3839.0765    2.3324142
Loop time of 0.0219429 on 1 procs for 50 steps with 192 atoms

unfix 1

# Calculate potential energy at different distances
#compute 1 all pressure c_ID
compute test all temp
compute 1 all pressure test

#variable      sigmazz equal c_ID[i]
variable      sigmazz equal c_1
variable        st equal step
variable        index loop 50

#loop starts
label loop
next            index

#change_box all xy final -0.1 z final 0.0 0.5 boundary p p f remap units box \
#change_box all xy scale -0.1 z boundary p p f remap units box
change_box all z final 0 0.1 boundary p p f remap units box
  orthogonal box = (-1.42846 -1.42846 0) to (9.42846 9.42846 0.1)
#change_box all xy final -0.1 z boundary p p f remap units box
#run 0

thermo 10
thermo_style custom step temp pe etotal press vol density
# NVT relaxation
fix 1 all nvt temp 300 300  0.01

unfix 1

dump 102 all xyz 100 si_min_relaxation.xyz

run 5000
Step Temp PotEng TotEng Press Volume Density
50 9.3742484e-21 2.2293636e+11 2.2293636e+11 4.0430068e+16    11.787257    759.66075
